#generated using pymatgen
data_Mg11Zn4C40(N2O19)2
_symmetry_space_group_name_H-M   'P 1'
_cell_length_a   10.65455000
_cell_length_b   9.73022300
_cell_length_c   10.65455000
_cell_angle_alpha   89.99574700
_cell_angle_beta   84.48493000
_cell_angle_gamma   89.99731500
_symmetry_Int_Tables_number   1
_chemical_formula_structural   Mg11Zn4C40(N2O19)2
_chemical_formula_sum   'Mg11 Zn4 C40 N4 O38'
_cell_volume   1099.45631817
_cell_formula_units_Z   1
loop_
 _symmetry_equiv_pos_site_id
 _symmetry_equiv_pos_as_xyz
  1  'x, y, z'
loop_
 _atom_site_type_symbol
 _atom_site_label
 _atom_site_symmetry_multiplicity
 _atom_site_fract_x
 _atom_site_fract_y
 _atom_site_fract_z
 _atom_site_occupancy
  O  O1  1  1.618201  0.513810  0.692602  1
  O  O2  1  2.118201  1.013810  1.192602  1
  O  O3  1  1.252723  0.513803  0.709408  1
  O  O4  1  1.752723  1.013803  1.209408  1
  O  O5  1  1.443865  0.513815  0.518266  1
  O  O6  1  1.943865  1.013815  1.018266  1
  O  O7  1  1.427059  0.513798  0.883745  1
  O  O8  1  1.927059  1.013798  1.383745  1
  O  O9  1  1.443852  0.742395  0.518261  1
  O  O10  1  1.943852  1.242395  1.018261  1
  O  O11  1  1.252710  0.742383  0.709403  1
  O  O12  1  1.752710  1.242383  1.209403  1
  O  O13  1  1.618189  0.742390  0.692597  1
  O  O14  1  2.118189  1.242390  1.192597  1
  Zn  Zn15  1  1.435447  0.778678  0.700999  1
  Zn  Zn16  1  1.935447  1.278678  1.200999  1
  Zn  Zn17  1  1.435464  0.477515  0.701006  1
  Zn  Zn18  1  1.935464  0.977515  1.201006  1
  O  O19  1  1.427046  0.742378  0.883739  1
  O  O20  1  1.927046  1.242378  1.383739  1
  C  C21  1  1.205918  0.628092  0.708172  1
  C  C22  1  1.705918  1.128092  1.208172  1
  C  C23  1  1.066475  0.628090  0.704480  1
  C  C24  1  1.566475  1.128090  1.204480  1
  C  C25  1  1.442625  0.628105  0.471466  1
  C  C26  1  1.942625  1.128105  0.971465  1
  C  C27  1  1.438933  0.628102  0.332022  1
  C  C28  1  1.938933  1.128102  0.832022  1
  C  C29  1  1.664993  0.628098  0.693834  1
  C  C30  1  2.164993  1.128098  1.193834  1
  C  C31  1  1.804436  0.628091  0.697526  1
  C  C32  1  2.304436  1.128091  1.197526  1
  N  N33  1  1.435445  0.984215  0.700994  1
  N  N34  1  1.935445  1.484215  1.200994  1
  C  C35  1  1.855961  0.628099  0.813552  1
  C  C36  1  2.355961  1.128099  1.313552  1
  C  C37  1  1.986979  0.628094  0.817030  1
  C  C38  1  2.486979  1.128094  1.317030  1
  C  C39  1  1.883922  0.628091  0.584984  1
  C  C40  1  2.383922  1.128091  1.084984  1
  C  C41  1  2.014942  0.628096  0.588461  1
  C  C42  1  2.514942  1.128096  1.088461  1
  N  N43  1  1.435476  0.271978  0.701002  1
  N  N44  1  1.935476  0.771978  1.201002  1
  C  C45  1  1.350782  1.056156  0.785600  1
  C  C46  1  1.850782  1.556156  1.285600  1
  C  C47  1  1.350800  1.200037  0.785608  1
  C  C48  1  1.850800  1.700037  1.285608  1
  C  C49  1  1.520112  1.056146  0.616392  1
  C  C50  1  2.020112  1.556146  1.116392  1
  C  C51  1  1.520125  1.200029  0.616392  1
  C  C52  1  2.020125  1.700029  1.116392  1
  C  C53  1  1.322906  0.628080  0.280497  1
  C  C54  1  1.822906  1.128080  0.780497  1
  C  C55  1  1.319428  0.628073  0.149479  1
  C  C56  1  1.819428  1.128073  0.649479  1
  C  C57  1  1.551474  0.628104  0.252537  1
  C  C58  1  2.051474  1.128104  0.752537  1
  C  C59  1  1.547998  0.628087  0.121516  1
  C  C60  1  2.047998  1.128087  0.621516  1
  C  C61  1  1.428287  0.628085  0.930540  1
  C  C62  1  1.928287  1.128085  1.430540  1
  C  C63  1  1.431979  0.628079  1.069983  1
  C  C64  1  1.931978  1.128079  1.569983  1
  O  O65  1  1.829092  0.628096  0.461545  1
  O  O66  1  2.329092  1.128096  0.961545  1
  Mg  Mg67  1  1.972644  0.629357  0.352750  1
  Mg  Mg68  1  2.472644  1.129357  0.852750  1
  O  O69  1  2.091199  0.630580  0.464164  1
  O  O70  1  2.591199  1.130580  0.964164  1
  O  O71  1  1.674913  0.628114  0.307366  1
  O  O72  1  2.174913  1.128114  0.807366  1
  Mg  Mg73  1  1.783709  0.626847  0.163815  1
  Mg  Mg74  1  2.283709  1.126847  0.663815  1
  O  O75  1  1.672294  0.625607  0.045259  1
  O  O76  1  2.172294  1.125607  0.545259  1
  O  O77  1  1.610174  0.979595  0.526371  1
  O  O78  1  2.110174  1.479595  1.026371  1
  Mg  Mg79  1  1.692559  1.122156  0.442502  1
  Mg  Mg80  1  2.192559  1.622156  0.942502  1
  O  O81  1  1.611877  1.266852  0.521648  1
  O  O82  1  2.111877  1.766852  1.021648  1
  O  O83  1  1.260700  0.979607  0.875618  1
  O  O84  1  1.760700  1.479607  1.375618  1
  Mg  Mg85  1  1.178338  1.122164  0.959508  1
  Mg  Mg86  1  1.678338  1.622164  1.459508  1
  O  O87  1  1.259052  1.266863  0.880391  1
  O  O88  1  1.759052  1.766863  1.380391  1
  O  O89  1  1.203163  0.628131  0.365083  1
  O  O90  1  1.703163  1.128131  0.865083  1
  Mg  Mg91  1  1.087465  0.629397  0.249006  1
  Mg  Mg92  1  1.587465  1.129397  0.749006  1
  O  O93  1  1.191873  0.630544  0.104037  1
  O  O94  1  1.691873  1.130544  0.604037  1
  O  O95  1  1.771375  0.628096  0.933295  1
  O  O96  1  2.271375  1.128096  1.433295  1
  Mg  Mg97  1  1.887452  0.626827  1.048994  1
